@<TRIPOS>MOLECULE
C13H18O2
   33    33     1     0     0
SMALL
NO_CHARGES


@<TRIPOS>ATOM
      1 C1          5.1562    0.5894    0.5744 C.3       1 <1>         0.0000
      2 C2          3.6659    0.6344    0.2309 C.3       1 <1>         0.0000
      3 C3          3.4894    1.1095   -1.2127 C.3       1 <1>         0.0000
      4 C4          3.0647   -0.7641    0.3846 C.3       1 <1>         0.0000
      5 C5          1.5751   -0.6973    0.1662 C.ar      1 <1>         0.0000
      6 C6          1.0544   -0.8651   -1.1033 C.ar      1 <1>         0.0000
      7 C7         -0.3119   -0.8037   -1.3037 C.ar      1 <1>         0.0000
      8 C8         -1.1577   -0.5750   -0.2344 C.ar      1 <1>         0.0000
      9 C9         -2.6472   -0.5076   -0.4530 C.3       1 <1>         0.0000
     10 C10        -3.3338   -1.5965    0.3741 C.3       1 <1>         0.0000
     11 C11        -3.1570    0.8445   -0.0253 C.2       1 <1>         0.0000
     12 O1         -2.3895    1.6689    0.4121 O.2       1 <1>         0.0000
     13 O2         -4.4637    1.1331   -0.1302 O.3       1 <1>         0.0000
     14 C12        -0.6372   -0.4086    1.0353 C.ar      1 <1>         0.0000
     15 C13         0.7290   -0.4738    1.2363 C.ar      1 <1>         0.0000
     16 H1          5.5845    1.5857    0.4649 H         1 <1>         0.0000
     17 H2          5.2819    0.2509    1.6029 H         1 <1>         0.0000
     18 H3          5.6638   -0.1005   -0.0998 H         1 <1>         0.0000
     19 H4          3.1583    1.3242    0.9051 H         1 <1>         0.0000
     20 H5          3.9178    2.1058   -1.3223 H         1 <1>         0.0000
     21 H6          3.9970    0.4196   -1.8869 H         1 <1>         0.0000
     22 H7          2.4277    1.1416   -1.4575 H         1 <1>         0.0000
     23 H8          3.5100   -1.4340   -0.3509 H         1 <1>         0.0000
     24 H9          3.2683   -1.1389    1.3877 H         1 <1>         0.0000
     25 H10         1.7152   -1.0437   -1.9387 H         1 <1>         0.0000
     26 H11        -0.7186   -0.9341   -2.2956 H         1 <1>         0.0000
     27 H12        -2.8668   -0.6612   -1.5095 H         1 <1>         0.0000
     28 H13        -3.1143   -1.4429    1.4306 H         1 <1>         0.0000
     29 H14        -4.4112   -1.5477    0.2160 H         1 <1>         0.0000
     30 H15        -2.9651   -2.5744    0.0648 H         1 <1>         0.0000
     31 H16        -4.7434    2.0132    0.1567 H         1 <1>         0.0000
     32 H17        -1.2980   -0.2302    1.8707 H         1 <1>         0.0000
     33 H18         1.1356   -0.3437    2.2283 H         1 <1>         0.0000
@<TRIPOS>BOND
     1    1    2 1
     2    2    3 1
     3    2    4 1
     4    4    5 1
     5    5    6 ar
     6    6    7 ar
     7    7    8 ar
     8    8    9 1
     9    9   10 1
    10    9   11 1
    11   11   12 2
    12   11   13 1
    13    8   14 ar
    14   14   15 ar
    15    5   15 ar
    16    1   16 1
    17    1   17 1
    18    1   18 1
    19    2   19 1
    20    3   20 1
    21    3   21 1
    22    3   22 1
    23    4   23 1
    24    4   24 1
    25    6   25 1
    26    7   26 1
    27    9   27 1
    28   10   28 1
    29   10   29 1
    30   10   30 1
    31   13   31 1
    32   14   32 1
    33   15   33 1
